3
 energy: -5.133996650079 gnorm: 0.000491772421 xtb: 6.7.1 (88182d28a757ebc9ad4dd669307fb809b48a81c6)
O            0.00000000110172        0.06831699829953       -0.00000000000000
H            0.70550917710755        0.55184150042381        0.00000000000000
H           -0.70550917820927        0.55184150127666        0.00000000000000
