3
 energy: -7.652663953294 gnorm: 4.543103257227 xtb: 6.7.1 (88182d28a757ebc9ad4dd669307fb809b48a81c6)
O            0.00000000000000        0.00000000000000        0.00000000000000
H            0.75700000000000        0.58600000000000        0.00000000000000
H           -0.75700000000000        0.58600000000000        0.00000000000000
