3
 energy: -5.070544134494 gnorm: 0.000716541574 xtb: 6.7.1 (88182d28a757ebc9ad4dd669307fb809b48a81c6)
O            0.00000000018365        0.01098113513616       -0.00000000000000
H            0.77236042339477        0.58050943236084        0.00000000000000
H           -0.77236042357841        0.58050943250300        0.00000000000000
