3
 energy: -5.138931726821 gnorm: 0.000552408950 xtb: 6.7.1 (88182d28a757ebc9ad4dd669307fb809b48a81c6)
O           -0.00000000032484        0.07057866281758       -0.00000000000000
H            0.70444661354823        0.55071066871694        0.00000000000000
H           -0.70444661322339        0.55071066846548        0.00000000000000
